<?xml version="1.0" encoding="UTF-8"?>

<!-- generated on 2025-05-13 13:27:16 by Eclipse SUMO netconvert Version v1_21_0+2143-fc8bfb330ab
<netconvertConfiguration xmlns:xsi="http://www.w3.org/2001/XMLSchema-instance" xsi:noNamespaceSchemaLocation="http://sumo.dlr.de/xsd/netconvertConfiguration.xsd">

    <input>
        <type-files value="${SUMO_HOME}/data/typemap/osmNetconvert.typ.xml"/>
        <osm-files value="osm_bbox.osm.xml.gz"/>
    </input>

    <output>
        <output-file value="osm.net.xml.gz"/>
        <output.street-names value="true"/>
        <output.original-names value="true"/>
    </output>

    <projection>
        <proj.utm value="true"/>
    </projection>

    <processing>
        <geometry.remove value="true"/>
        <roundabouts.guess value="true"/>
    </processing>

    <tls_building>
        <tls.discard-simple value="true"/>
        <tls.join value="true"/>
        <tls.guess-signals value="true"/>
        <tls.default-type value="actuated"/>
    </tls_building>

    <ramp_guessing>
        <ramps.guess value="true"/>
    </ramp_guessing>

    <junctions>
        <junctions.join value="true"/>
        <junctions.corner-detail value="5"/>
    </junctions>

</netconvertConfiguration>
-->

<net version="1.20" junctionCornerDetail="5" limitTurnSpeed="5.50" xmlns:xsi="http://www.w3.org/2001/XMLSchema-instance" xsi:noNamespaceSchemaLocation="http://sumo.dlr.de/xsd/net_file.xsd">

    <location netOffset="-740036.75,-4206780.85" convBoundary="0.00,0.00,816.14,419.27" origBoundary="23.733004,37.976914,23.742244,37.980537" projParameter="+proj=utm +zone=34 +ellps=WGS84 +datum=WGS84 +units=m +no_defs"/>

    <type id="highway.footway" priority="1" numLanes="1" speed="2.78" allow="pedestrian" oneway="1" width="2.00"/>
    <type id="highway.path" priority="1" numLanes="1" speed="5.56" allow="pedestrian bicycle" oneway="0" width="2.00"/>
    <type id="highway.pedestrian" priority="1" numLanes="1" speed="2.78" allow="pedestrian" oneway="1" width="2.00"/>
    <type id="highway.primary" priority="12" numLanes="2" speed="27.78" disallow="tram rail_urban rail rail_electric rail_fast ship container cable_car subway aircraft wheelchair scooter drone" oneway="0"/>
    <type id="highway.residential" priority="3" numLanes="1" speed="13.89" disallow="tram rail_urban rail rail_electric rail_fast ship container cable_car subway aircraft wheelchair scooter drone" oneway="0"/>
    <type id="highway.secondary" priority="11" numLanes="1" speed="27.78" disallow="tram rail_urban rail rail_electric rail_fast ship container cable_car subway aircraft wheelchair scooter drone" oneway="0"/>
    <type id="highway.service" priority="1" numLanes="1" speed="5.56" allow="pedestrian delivery bicycle" oneway="0"/>
    <type id="highway.steps" priority="1" numLanes="1" speed="1.39" allow="pedestrian" oneway="1" width="2.00"/>
    <type id="highway.tertiary" priority="10" numLanes="1" speed="22.22" disallow="tram rail_urban rail rail_electric rail_fast ship container cable_car subway aircraft wheelchair scooter drone" oneway="0"/>
    <type id="railway.subway" priority="18" numLanes="1" speed="27.78" allow="subway" oneway="1"/>

    <edge id=":10092313561_0" function="internal">
        <lane id=":10092313561_0_0" index="0" disallow="tram rail_urban rail rail_electric rail_fast ship container cable_car subway aircraft wheelchair scooter drone" speed="8.91" length="6.96" shape="746.79,79.15 746.10,77.18 745.55,75.78 744.65,74.71 742.94,73.72"/>
    </edge>
    <edge id=":10092313561_1" function="internal">
        <lane id=":10092313561_1_0" index="0" disallow="tram rail_urban rail rail_electric rail_fast ship container cable_car subway aircraft wheelchair scooter drone" speed="5.85" length="10.88" shape="746.79,79.15 745.77,75.55 746.09,73.33 747.74,72.48 750.73,73.00"/>
    </edge>
    <edge id=":10092313561_2" function="internal">
        <lane id=":10092313561_2_0" index="0" disallow="tram rail_urban rail rail_electric rail_fast ship container cable_car subway aircraft wheelchair scooter drone" speed="22.22" length="7.18" shape="749.73,76.04 747.69,75.41 746.28,75.01 744.90,74.54 742.94,73.72"/>
    </edge>
    <edge id=":10092313561_3" function="internal">
        <lane id=":10092313561_3_0" index="0" disallow="tram rail_urban rail rail_electric rail_fast ship container cable_car subway aircraft wheelchair scooter drone" speed="3.65" length="1.44" shape="749.73,76.04 748.84,74.90"/>
    </edge>
    <edge id=":10092313561_6" function="internal">
        <lane id=":10092313561_6_0" index="0" disallow="tram rail_urban rail rail_electric rail_fast ship container cable_car subway aircraft wheelchair scooter drone" speed="3.65" length="3.23" shape="748.84,74.90 748.71,74.02 749.34,73.38 750.73,73.00"/>
    </edge>
    <edge id=":10092313561_4" function="internal">
        <lane id=":10092313561_4_0" index="0" disallow="tram rail_urban rail rail_electric rail_fast ship container cable_car subway aircraft wheelchair scooter drone" speed="22.22" length="6.84" shape="744.26,70.80 746.13,71.59 747.45,72.03 748.79,72.40 750.73,73.00"/>
    </edge>
    <edge id=":10092313561_5" function="internal">
        <lane id=":10092313561_5_0" index="0" disallow="tram rail_urban rail rail_electric rail_fast ship container cable_car subway aircraft wheelchair scooter drone" speed="3.65" length="1.44" shape="744.26,70.80 745.03,72.02"/>
    </edge>
    <edge id=":10092313561_7" function="internal">
        <lane id=":10092313561_7_0" index="0" disallow="tram rail_urban rail rail_electric rail_fast ship container cable_car subway aircraft wheelchair scooter drone" speed="3.65" length="3.23" shape="745.03,72.02 745.06,72.92 744.37,73.48 742.94,73.72"/>
    </edge>
    <edge id=":10092313564_0" function="internal">
        <lane id=":10092313564_0_0" index="0" disallow="tram rail_urban rail rail_electric rail_fast ship container cable_car subway aircraft wheelchair scooter drone" speed="3.65" length="4.67" shape="816.65,94.81 817.53,95.95 817.66,96.84 817.03,97.47 815.64,97.85"/>
    </edge>
    <edge id=":10092386712_0" function="internal">
        <lane id=":10092386712_0_0" index="0" disallow="tram rail_urban rail rail_electric rail_fast ship container cable_car subway aircraft wheelchair scooter drone" speed="22.22" length="3.05" shape="722.68,66.34 719.74,65.54"/>
    </edge>
    <edge id=":10092386712_1" function="internal">
        <lane id=":10092386712_1_0" index="0" disallow="tram rail_urban rail rail_electric rail_fast ship container cable_car subway aircraft wheelchair scooter drone" speed="22.22" length="3.13" shape="720.61,62.46 723.63,63.28"/>
    </edge>
    <edge id=":10174555843_0" function="internal">
        <lane id=":10174555843_0_0" index="0" disallow="tram rail_urban rail rail_electric rail_fast ship container cable_car subway aircraft wheelchair scooter drone" speed="7.09" length="10.51" width="7.00" shape="202.43,376.52 203.96,373.71 204.43,371.21 203.82,369.03 202.15,367.17"/>
    </edge>
    <edge id=":10174555843_1" function="internal">
        <lane id=":10174555843_1_0" index="0" disallow="tram rail_urban rail rail_electric rail_fast ship container cable_car subway aircraft wheelchair scooter drone" speed="19.45" length="14.63" shape="202.43,376.52 210.79,364.52"/>
        <lane id=":10174555843_1_1" index="1" disallow="tram rail_urban rail rail_electric rail_fast ship container cable_car subway aircraft wheelchair scooter drone" speed="19.45" length="14.63" shape="205.05,378.35 213.42,366.35"/>
        <lane id=":10174555843_1_2" index="2" disallow="tram rail_urban rail rail_electric rail_fast ship container cable_car subway aircraft wheelchair scooter drone" speed="19.45" length="14.63" shape="207.68,380.18 216.04,368.18"/>
        <lane id=":10174555843_1_3" index="3" disallow="tram rail_urban rail rail_electric rail_fast ship container cable_car subway aircraft wheelchair scooter drone" speed="19.45" length="14.63" shape="210.31,382.01 218.67,370.01"/>
    </edge>
    <edge id=":10174555843_5" function="internal">
        <lane id=":10174555843_5_0" index="0" disallow="tram rail_urban rail rail_electric rail_fast ship container cable_car subway aircraft wheelchair scooter drone" speed="5.92" length="7.41" shape="210.31,382.01 212.12,379.58 213.60,377.99 214.75,377.23 215.58,377.29"/>
    </edge>
    <edge id=":10289325218_0" function="internal">
        <lane id=":10289325218_0_0" index="0" disallow="tram rail_urban rail rail_electric rail_fast ship container cable_car subway aircraft wheelchair scooter drone" speed="22.22" length="5.00" shape="209.59,157.40 213.70,160.26"/>
        <lane id=":10289325218_0_1" index="1" disallow="tram rail_urban rail rail_electric rail_fast ship container cable_car subway aircraft wheelchair scooter drone" speed="22.22" length="5.00" shape="207.76,160.03 211.87,162.89"/>
    </edge>
    <edge id=":10291449705_0" function="internal">
        <lane id=":10291449705_0_0" index="0" disallow="tram rail_urban rail rail_electric rail_fast ship container cable_car subway aircraft wheelchair scooter drone" speed="22.22" length="5.00" shape="281.17,207.28 285.27,210.14"/>
        <lane id=":10291449705_0_1" index="1" disallow="tram rail_urban rail rail_electric rail_fast ship container cable_car subway aircraft wheelchair scooter drone" speed="22.22" length="5.00" shape="279.34,209.91 283.44,212.77"/>
    </edge>
    <edge id=":10296525732_0" function="internal">
        <lane id=":10296525732_0_0" index="0" disallow="tram rail_urban rail rail_electric rail_fast ship container cable_car subway aircraft wheelchair scooter drone" speed="27.78" length="7.01" shape="41.14,102.12 45.30,96.48"/>
        <lane id=":10296525732_0_1" index="1" disallow="tram rail_urban rail rail_electric rail_fast ship container cable_car subway aircraft wheelchair scooter drone" speed="27.78" length="7.01" shape="43.72,104.02 47.88,98.38"/>
        <lane id=":10296525732_0_2" index="2" disallow="tram rail_urban rail rail_electric rail_fast ship container cable_car subway aircraft wheelchair scooter drone" speed="27.78" length="7.01" shape="46.29,105.92 50.45,100.28"/>
    </edge>
    <edge id=":11204963681_0" function="internal">
        <lane id=":11204963681_0_0" index="0" disallow="tram rail_urban rail rail_electric rail_fast ship container cable_car subway aircraft wheelchair scooter drone" speed="22.22" length="1.05" shape="696.66,57.33 696.40,57.18 696.24,57.04 696.10,56.87 695.87,56.67"/>
    </edge>
    <edge id=":11204963681_1" function="internal">
        <lane id=":11204963681_1_0" index="0" disallow="tram rail_urban rail rail_electric rail_fast ship container cable_car subway aircraft wheelchair scooter drone" speed="22.22" length="0.32" shape="697.71,54.25 697.78,54.31 697.83,54.34 697.89,54.38 697.97,54.42"/>
    </edge>
    <edge id=":11204963823_0" function="internal">
        <lane id=":11204963823_0_0" index="0" disallow="tram rail_urban rail rail_electric rail_fast ship container cable_car subway aircraft wheelchair scooter drone" speed="22.22" length="5.22" shape="737.19,71.12 735.77,70.50 734.79,70.11 733.78,69.78 732.30,69.32"/>
    </edge>
    <edge id=":11204963823_1" function="internal">
        <lane id=":11204963823_1_0" index="0" disallow="tram rail_urban rail rail_electric rail_fast ship container cable_car subway aircraft wheelchair scooter drone" speed="22.22" length="5.61" shape="733.24,66.26 734.84,66.75 735.92,67.11 736.98,67.53 738.51,68.20"/>
    </edge>
    <edge id=":11212614823_0" function="internal">
        <lane id=":11212614823_0_0" index="0" disallow="tram rail_urban rail rail_electric rail_fast ship container cable_car subway aircraft wheelchair scooter drone" speed="16.19" length="3.48" shape="695.36,56.28 694.57,55.61 694.04,55.11 693.47,54.71 692.52,54.32"/>
    </edge>
    <edge id=":11770160349_0" function="internal">
        <lane id=":11770160349_0_0" index="0" disallow="tram rail_urban rail rail_electric rail_fast ship container cable_car subway aircraft wheelchair scooter drone" speed="13.89" length="8.00" width="5.00" shape="70.34,157.70 63.85,153.02"/>
    </edge>
    <edge id=":11877289055_0" function="internal">
        <lane id=":11877289055_0_0" index="0" disallow="tram rail_urban rail rail_electric rail_fast ship container cable_car subway aircraft wheelchair scooter drone" speed="13.89" length="4.96" shape="28.73,340.82 25.69,344.78"/>
        <lane id=":11877289055_0_1" index="1" disallow="tram rail_urban rail rail_electric rail_fast ship container cable_car subway aircraft wheelchair scooter drone" speed="13.89" length="4.96" shape="26.19,338.88 23.16,342.82"/>
        <lane id=":11877289055_0_2" index="2" disallow="tram rail_urban rail rail_electric rail_fast ship container cable_car subway aircraft wheelchair scooter drone" speed="13.89" length="4.96" shape="23.65,336.93 20.63,340.86"/>
        <lane id=":11877289055_0_3" index="3" disallow="tram rail_urban rail rail_electric rail_fast ship container cable_car subway aircraft wheelchair scooter drone" speed="13.89" length="4.96" shape="21.11,334.99 18.10,338.90"/>
        <lane id=":11877289055_0_4" index="4" disallow="tram rail_urban rail rail_electric rail_fast ship container cable_car subway aircraft wheelchair scooter drone" speed="13.89" length="4.96" shape="18.57,333.04 15.57,336.94"/>
    </edge>
    <edge id=":1559440851_0" function="internal">
        <lane id=":1559440851_0_0" index="0" allow="pedestrian bicycle" speed="2.89" length="2.92" width="2.00" shape="799.29,385.77 800.15,385.49 800.70,385.60 800.93,386.11 800.86,387.01"/>
    </edge>
    <edge id=":2300286832_0" function="internal">
        <lane id=":2300286832_0_0" index="0" disallow="tram rail_urban rail rail_electric rail_fast ship container cable_car subway aircraft wheelchair scooter drone" speed="6.01" length="7.47" shape="809.96,297.58 811.76,298.64 812.80,299.99 813.09,301.64 812.63,303.58"/>
    </edge>
    <edge id=":2300286832_1" function="internal">
        <lane id=":2300286832_1_0" index="0" disallow="tram rail_urban rail rail_electric rail_fast ship container cable_car subway aircraft wheelchair scooter drone" speed="3.87" length="2.49" shape="809.61,302.53 809.76,301.88 809.66,301.33 809.32,300.88 808.72,300.53"/>
    </edge>
    <edge id=":2313405235_0" function="internal">
        <lane id=":2313405235_0_0" index="0" disallow="tram rail_urban rail rail_electric rail_fast ship container cable_car subway aircraft wheelchair scooter drone" speed="22.22" length="9.08" shape="336.05,245.55 338.23,247.06 339.74,248.06 341.29,248.98 343.60,250.27"/>
        <lane id=":2313405235_0_1" index="1" disallow="tram rail_urban rail rail_electric rail_fast ship container cable_car subway aircraft wheelchair scooter drone" speed="22.22" length="9.08" shape="334.22,248.17 336.48,249.74 338.05,250.77 339.66,251.73 342.06,253.07"/>
    </edge>
    <edge id=":2313405235_2" function="internal">
        <lane id=":2313405235_2_0" index="0" allow="pedestrian delivery bicycle" speed="6.08" length="7.77" shape="334.22,248.17 336.37,249.91 337.65,251.52 338.06,252.99 337.60,254.33"/>
    </edge>
    <edge id=":2313405235_3" function="internal">
        <lane id=":2313405235_3_0" index="0" allow="pedestrian delivery bicycle" speed="6.30" length="7.70" shape="334.98,252.49 336.06,251.63 337.60,251.44 339.60,251.92 342.06,253.07"/>
    </edge>
    <edge id=":2313405235_4" function="internal">
        <lane id=":2313405235_4_0" index="0" allow="pedestrian delivery bicycle" speed="3.65" length="4.67" shape="334.98,252.49 336.33,251.97 337.21,252.10 337.64,252.89 337.60,254.33"/>
    </edge>
    <edge id=":2313405251_0" function="internal">
        <lane id=":2313405251_0_0" index="0" allow="pedestrian delivery bicycle" speed="3.65" length="4.67" shape="319.08,280.62 317.74,281.14 316.85,281.01 316.43,280.22 316.47,278.78"/>
    </edge>
    <edge id=":2321065603_0" function="internal">
        <lane id=":2321065603_0_0" index="0" disallow="tram rail_urban rail rail_electric rail_fast ship container cable_car subway aircraft wheelchair scooter drone" speed="13.89" length="4.43" shape="35.96,43.04 37.27,43.11 38.16,43.27 39.01,43.57 40.22,44.09"/>
    </edge>
    <edge id=":2326150765_0" function="internal">
        <lane id=":2326150765_0_0" index="0" allow="pedestrian delivery bicycle" speed="3.65" length="4.67" shape="794.22,58.83 795.35,57.92 796.23,57.78 796.87,58.41 797.27,59.79"/>
    </edge>
    <edge id=":2326150809_0" function="internal">
        <lane id=":2326150809_0_0" index="0" disallow="tram rail_urban rail rail_electric rail_fast ship container cable_car subway aircraft wheelchair scooter drone" speed="22.22" length="9.40" shape="791.00,89.69 782.08,86.74"/>
    </edge>
    <edge id=":2326150809_1" function="internal">
        <lane id=":2326150809_1_0" index="0" allow="pedestrian delivery bicycle" speed="6.90" length="3.24" shape="791.00,89.69 788.53,88.46 788.22,88.10"/>
    </edge>
    <edge id=":2326150809_7" function="internal">
        <lane id=":2326150809_7_0" index="0" allow="pedestrian delivery bicycle" speed="6.90" length="6.93" shape="788.22,88.10 787.04,86.72 786.53,84.47 786.99,81.71"/>
    </edge>
    <edge id=":2326150809_2" function="internal">
        <lane id=":2326150809_2_0" index="0" allow="pedestrian delivery bicycle" speed="5.09" length="5.06" shape="790.04,82.67 789.81,84.05 790.06,85.18 790.79,86.04 792.01,86.66"/>
    </edge>
    <edge id=":2326150809_3" function="internal">
        <lane id=":2326150809_3_0" index="0" allow="pedestrian delivery bicycle" speed="6.85" length="10.23" shape="790.04,82.67 788.82,85.20 787.09,86.72 784.84,87.24 782.08,86.74"/>
    </edge>
    <edge id=":2326150809_4" function="internal">
        <lane id=":2326150809_4_0" index="0" allow="pedestrian delivery bicycle" speed="3.65" length="4.67" shape="790.04,82.67 788.92,83.57 788.03,83.71 787.39,83.09 786.99,81.71"/>
    </edge>
    <edge id=":2326150809_5" function="internal">
        <lane id=":2326150809_5_0" index="0" allow="pedestrian delivery bicycle" speed="5.03" length="5.02" shape="783.08,83.70 784.44,83.95 785.54,83.69 786.39,82.95 786.99,81.71"/>
    </edge>
    <edge id=":2326150809_6" function="internal">
        <lane id=":2326150809_6_0" index="0" disallow="tram rail_urban rail rail_electric rail_fast ship container cable_car subway aircraft wheelchair scooter drone" speed="22.22" length="9.40" shape="783.08,83.70 792.01,86.66"/>
    </edge>
    <edge id=":2326906321_0" function="internal">
        <lane id=":2326906321_0_0" index="0" disallow="tram rail_urban rail rail_electric rail_fast ship container cable_car subway aircraft wheelchair scooter drone" speed="8.33" length="5.02" shape="605.64,25.87 610.62,25.18"/>
        <lane id=":2326906321_0_1" index="1" disallow="tram rail_urban rail rail_electric rail_fast ship container cable_car subway aircraft wheelchair scooter drone" speed="8.33" length="5.02" shape="606.09,29.03 611.05,28.35"/>
    </edge>
    <edge id=":2326906533_0" function="internal">
        <lane id=":2326906533_0_0" index="0" disallow="tram rail_urban rail rail_electric rail_fast ship container cable_car subway aircraft wheelchair scooter drone" speed="13.89" length="5.00" shape="564.66,111.15 560.52,108.34"/>
    </edge>
    <edge id=":250691739_0" function="internal">
        <lane id=":250691739_0_0" index="0" disallow="tram rail_urban rail rail_electric rail_fast ship container cable_car subway aircraft wheelchair scooter drone" speed="7.34" length="11.82" shape="385.61,139.60 382.62,137.07 380.96,134.61 380.62,132.22 381.59,129.89"/>
        <lane id=":250691739_0_1" index="1" disallow="tram rail_urban rail rail_electric rail_fast ship container cable_car subway aircraft wheelchair scooter drone" speed="6.52" length="9.11" shape="385.61,139.60 383.77,137.88 382.92,136.00 383.07,133.95 384.20,131.75"/>
    </edge>
    <edge id=":250691739_2" function="internal">
        <lane id=":250691739_2_0" index="0" disallow="tram rail_urban rail rail_electric rail_fast ship container cable_car subway aircraft wheelchair scooter drone" speed="27.78" length="11.61" shape="369.79,136.11 376.38,126.17"/>
        <lane id=":250691739_2_1" index="1" disallow="tram rail_urban rail rail_electric rail_fast ship container cable_car subway aircraft wheelchair scooter drone" speed="27.78" length="11.61" shape="372.51,137.79 378.99,128.03"/>
        <lane id=":250691739_2_2" index="2" disallow="tram rail_urban rail rail_electric rail_fast ship container cable_car subway aircraft wheelchair scooter drone" speed="27.78" length="11.61" shape="375.23,139.48 381.59,129.89"/>
        <lane id=":250691739_2_3" index="3" disallow="tram rail_urban rail rail_electric rail_fast ship container cable_car subway aircraft wheelchair scooter drone" speed="27.78" length="11.61" shape="377.95,141.16 384.20,131.75"/>
    </edge>
    <edge id=":250691793_0" function="internal">
        <lane id=":250691793_0_0" index="0" disallow="tram rail_urban rail rail_electric rail_fast ship container cable_car subway aircraft wheelchair scooter drone" speed="27.78" length="11.18" shape="410.99,77.37 417.38,68.20"/>
        <lane id=":250691793_0_1" index="1" disallow="tram rail_urban rail rail_electric rail_fast ship container cable_car subway aircraft wheelchair scooter drone" speed="27.78" length="11.18" shape="413.62,79.20 420.01,70.03"/>
        <lane id=":250691793_0_2" index="2" disallow="tram rail_urban rail rail_electric rail_fast ship container cable_car subway aircraft wheelchair scooter drone" speed="27.78" length="11.18" shape="416.24,81.03 422.64,71.86"/>
        <lane id=":250691793_0_3" index="3" disallow="tram rail_urban rail rail_electric rail_fast ship container cable_car subway aircraft wheelchair scooter drone" speed="27.78" length="11.18" shape="418.86,82.87 425.26,73.68"/>
    </edge>
    <edge id=":250691793_4" function="internal">
        <lane id=":250691793_4_0" index="0" disallow="tram rail_urban rail rail_electric rail_fast ship container cable_car subway aircraft wheelchair scooter drone" speed="5.52" length="6.23" shape="418.86,82.87 420.36,80.92 421.62,79.66 422.66,79.11 423.47,79.25"/>
    </edge>
    <edge id=":250691794_0" function="internal">
        <lane id=":250691794_0_0" index="0" disallow="tram rail_urban rail rail_electric rail_fast ship container cable_car subway aircraft wheelchair scooter drone" speed="6.06" length="7.57" shape="398.62,88.22 400.25,88.89 401.85,88.74 403.42,87.78 404.96,86.00"/>
        <lane id=":250691794_0_1" index="1" disallow="tram rail_urban rail rail_electric rail_fast ship container cable_car subway aircraft wheelchair scooter drone" speed="6.90" length="10.11" shape="398.62,88.22 401.41,89.66 403.84,90.08 405.90,89.47 407.59,87.83"/>
    </edge>
    <edge id=":250691794_2" function="internal">
        <lane id=":250691794_2_0" index="0" disallow="tram rail_urban rail rail_electric rail_fast ship container cable_car subway aircraft wheelchair scooter drone" speed="27.78" length="8.56" shape="400.06,92.96 404.96,86.00"/>
        <lane id=":250691794_2_1" index="1" disallow="tram rail_urban rail rail_electric rail_fast ship container cable_car subway aircraft wheelchair scooter drone" speed="27.78" length="8.56" shape="402.67,94.82 407.59,87.83"/>
        <lane id=":250691794_2_2" index="2" disallow="tram rail_urban rail rail_electric rail_fast ship container cable_car subway aircraft wheelchair scooter drone" speed="27.78" length="8.56" shape="405.27,96.68 410.21,89.67"/>
        <lane id=":250691794_2_3" index="3" disallow="tram rail_urban rail rail_electric rail_fast ship container cable_car subway aircraft wheelchair scooter drone" speed="27.78" length="8.56" shape="407.88,98.53 412.83,91.50"/>
    </edge>
    <edge id=":250692062_0" function="internal">
        <lane id=":250692062_0_0" index="0" disallow="tram rail_urban rail rail_electric rail_fast ship container cable_car subway aircraft wheelchair scooter drone" speed="13.89" length="11.20" shape="456.16,102.56 465.28,109.06"/>
    </edge>
    <edge id=":250692062_1" function="internal">
        <lane id=":250692062_1_0" index="0" disallow="tram rail_urban rail rail_electric rail_fast ship container cable_car subway aircraft wheelchair scooter drone" speed="6.47" length="4.14" shape="457.51,110.43 459.19,108.61 460.70,107.92"/>
    </edge>
    <edge id=":250692062_2" function="internal">
        <lane id=":250692062_2_0" index="0" disallow="tram rail_urban rail rail_electric rail_fast ship container cable_car subway aircraft wheelchair scooter drone" speed="6.47" length="4.90" shape="460.70,107.92 461.04,107.77 463.07,107.92 465.28,109.06"/>
    </edge>
    <edge id=":250692359_0" function="internal">
        <lane id=":250692359_0_0" index="0" disallow="tram rail_urban rail rail_electric rail_fast ship container cable_car subway aircraft wheelchair scooter drone" speed="27.78" length="11.19" shape="343.53,174.12 349.92,164.95"/>
        <lane id=":250692359_0_1" index="1" disallow="tram rail_urban rail rail_electric rail_fast ship container cable_car subway aircraft wheelchair scooter drone" speed="27.78" length="11.19" shape="346.16,175.95 352.55,166.77"/>
        <lane id=":250692359_0_2" index="2" disallow="tram rail_urban rail rail_electric rail_fast ship container cable_car subway aircraft wheelchair scooter drone" speed="27.78" length="11.19" shape="348.78,177.79 355.18,168.60"/>
        <lane id=":250692359_0_3" index="3" disallow="tram rail_urban rail rail_electric rail_fast ship container cable_car subway aircraft wheelchair scooter drone" speed="27.78" length="11.19" shape="351.41,179.62 357.81,170.43"/>
    </edge>
    <edge id=":250692359_4" function="internal">
        <lane id=":250692359_4_0" index="0" disallow="tram rail_urban rail rail_electric rail_fast ship container cable_car subway aircraft wheelchair scooter drone" speed="6.47" length="9.03" shape="351.41,179.62 353.10,177.80 354.96,176.98 356.99,177.14 359.19,178.30"/>
    </edge>
    <edge id=":250692409_0" function="internal">
        <lane id=":250692409_0_0" index="0" disallow="tram rail_urban rail rail_electric rail_fast ship container cable_car subway aircraft wheelchair scooter drone" speed="6.22" length="8.05" width="6.00" shape="501.42,40.63 504.38,40.04 506.46,39.24 507.63,38.23 507.92,37.01"/>
    </edge>
    <edge id=":250692409_1" function="internal">
        <lane id=":250692409_1_0" index="0" disallow="tram rail_urban rail rail_electric rail_fast ship container cable_car subway aircraft wheelchair scooter drone" speed="22.22" length="13.85" shape="501.42,40.63 515.13,38.68"/>
        <lane id=":250692409_1_1" index="1" disallow="tram rail_urban rail rail_electric rail_fast ship container cable_car subway aircraft wheelchair scooter drone" speed="22.22" length="13.85" shape="501.86,43.79 515.58,41.85"/>
    </edge>
    <edge id=":250705828_0" function="internal">
        <lane id=":250705828_0_0" index="0" disallow="tram rail_urban rail rail_electric rail_fast ship container cable_car subway aircraft wheelchair scooter drone" speed="3.65" length="4.67" shape="723.81,381.10 722.50,381.70 721.61,381.62 721.14,380.86 721.09,379.41"/>
    </edge>
    <edge id=":250705954_0" function="internal">
        <lane id=":250705954_0_0" index="0" disallow="tram rail_urban rail rail_electric rail_fast ship container cable_car subway aircraft wheelchair scooter drone" speed="11.29" length="9.91" shape="736.89,301.23 733.98,301.80 731.87,302.21 730.11,303.13 728.24,305.22"/>
    </edge>
    <edge id=":250705954_1" function="internal">
        <lane id=":250705954_1_0" index="0" disallow="tram rail_urban rail rail_electric rail_fast ship container cable_car subway aircraft wheelchair scooter drone" speed="6.91" length="16.83" shape="736.89,301.23 732.49,301.64 730.54,300.06 731.05,296.49 734.01,290.94"/>
    </edge>
    <edge id=":250705954_2" function="internal">
        <lane id=":250705954_2_0" index="0" disallow="tram rail_urban rail rail_electric rail_fast ship container cable_car subway aircraft wheelchair scooter drone" speed="3.92" length="5.91" width="3.00" shape="736.89,301.23 736.03,299.63 736.06,298.50 736.98,297.84 738.80,297.67"/>
    </edge>
    <edge id=":250705954_3" function="internal">
        <lane id=":250705954_3_0" index="0" disallow="tram rail_urban rail rail_electric rail_fast ship container cable_car subway aircraft wheelchair scooter drone" speed="5.22" length="8.80" width="3.00" shape="736.70,292.66 735.26,295.44 735.13,297.20 736.31,297.94 738.80,297.67"/>
    </edge>
    <edge id=":250705954_4" function="internal">
        <lane id=":250705954_4_0" index="0" disallow="tram rail_urban rail rail_electric rail_fast ship container cable_car subway aircraft wheelchair scooter drone" speed="13.89" length="15.15" shape="736.70,292.66 728.24,305.22"/>
    </edge>
    <edge id=":250705954_5" function="internal">
        <lane id=":250705954_5_0" index="0" disallow="tram rail_urban rail rail_electric rail_fast ship container cable_car subway aircraft wheelchair scooter drone" speed="3.65" length="1.44" shape="736.70,292.66 735.38,293.24"/>
    </edge>
    <edge id=":250705954_9" function="internal">
        <lane id=":250705954_9_0" index="0" disallow="tram rail_urban rail rail_electric rail_fast ship container cable_car subway aircraft wheelchair scooter drone" speed="3.65" length="3.23" shape="735.38,293.24 734.50,293.15 734.04,292.38 734.01,290.94"/>
    </edge>
    <edge id=":250705954_6" function="internal">
        <lane id=":250705954_6_0" index="0" disallow="tram rail_urban rail rail_electric rail_fast ship container cable_car subway aircraft wheelchair scooter drone" speed="13.89" length="14.98" shape="725.64,303.36 734.01,290.94"/>
    </edge>
    <edge id=":250705954_7" function="internal">